RepresentativeLVNetworks-0.2.0/data/D/Loads.dss
new load.load66 phases=3 bus1=63.1.2.3.0 kv=0.433 kw=1.0 kvar=1.0 model=1 conn=wye vminpu=0.7 vmaxpu=1.3 
new load.load34 phases=3 bus1=48.1.2.3.0 kv=0.433 kw=1.0 kvar=1.0 model=1 conn=wye vminpu=0.7 vmaxpu=1.3 
new load.load33 phases=3 bus1=48.1.2.3.0 kv=0.433 kw=1.0 kvar=1.0 model=1 conn=wye vminpu=0.7 vmaxpu=1.3 
new load.load2 phases=3 bus1=60.1.2.3.0 kv=0.433 kw=1.0 kvar=1.0 model=1 conn=wye vminpu=0.7 vmaxpu=1.3 
new load.load47 phases=3 bus1=63.1.2.3.0 kv=0.433 kw=1.0 kvar=1.0 model=1 conn=wye vminpu=0.7 vmaxpu=1.3 
new load.load8 phases=3 bus1=60.1.2.3.0 kv=0.433 kw=1.0 kvar=1.0 model=1 conn=wye vminpu=0.7 vmaxpu=1.3 
new load.load60 phases=3 bus1=63.1.2.3.0 kv=0.433 kw=1.0 kvar=1.0 model=1 conn=wye vminpu=0.7 vmaxpu=1.3 
new load.load85 phases=3 bus1=64.1.2.3.0 kv=0.433 kw=1.0 kvar=1.0 model=1 conn=wye vminpu=0.7 vmaxpu=1.3 
new load.load83 phases=3 bus1=64.1.2.3.0 kv=0.433 kw=1.0 kvar=1.0 model=1 conn=wye vminpu=0.7 vmaxpu=1.3 
new load.load71 phases=3 bus1=64.1.2.3.0 kv=0.433 kw=1.0 kvar=1.0 model=1 conn=wye vminpu=0.7 vmaxpu=1.3 
new load.load28 phases=3 bus1=48.1.2.3.0 kv=0.433 kw=1.0 kvar=1.0 model=1 conn=wye vminpu=0.7 vmaxpu=1.3 
new load.load46 phases=3 bus1=63.1.2.3.0 kv=0.433 kw=1.0 kvar=1.0 model=1 conn=wye vminpu=0.7 vmaxpu=1.3 
new load.load20 phases=3 bus1=089.1.2.3.0 kv=0.433 kw=1.0 kvar=1.0 model=1 conn=wye vminpu=0.7 vmaxpu=1.3 
new load.load1 phases=3 bus1=60.1.2.3.0 kv=0.433 kw=1.0 kvar=1.0 model=1 conn=wye vminpu=0.7 vmaxpu=1.3 
new load.load42 phases=3 bus1=48.1.2.3.0 kv=0.433 kw=1.0 kvar=1.0 model=1 conn=wye vminpu=0.7 vmaxpu=1.3 
new load.load6 phases=3 bus1=60.1.2.3.0 kv=0.433 kw=1.0 kvar=1.0 model=1 conn=wye vminpu=0.7 vmaxpu=1.3 
new load.load59 phases=3 bus1=63.1.2.3.0 kv=0.433 kw=1.0 kvar=1.0 model=1 conn=wye vminpu=0.7 vmaxpu=1.3 
new load.load30 phases=3 bus1=48.1.2.3.0 kv=0.433 kw=1.0 kvar=1.0 model=1 conn=wye vminpu=0.7 vmaxpu=1.3 
new load.load35 phases=3 bus1=48.1.2.3.0 kv=0.433 kw=1.0 kvar=1.0 model=1 conn=wye vminpu=0.7 vmaxpu=1.3 
new load.load11 phases=3 bus1=46.1.2.3.0 kv=0.433 kw=1.0 kvar=1.0 model=1 conn=wye vminpu=0.7 vmaxpu=1.3 
new load.load61 phases=3 bus1=63.1.2.3.0 kv=0.433 kw=1.0 kvar=1.0 model=1 conn=wye vminpu=0.7 vmaxpu=1.3 
new load.load81 phases=3 bus1=64.1.2.3.0 kv=0.433 kw=1.0 kvar=1.0 model=1 conn=wye vminpu=0.7 vmaxpu=1.3 
new load.load70 phases=3 bus1=63.1.2.3.0 kv=0.433 kw=1.0 kvar=1.0 model=1 conn=wye vminpu=0.7 vmaxpu=1.3 
new load.load76 phases=3 bus1=64.1.2.3.0 kv=0.433 kw=1.0 kvar=1.0 model=1 conn=wye vminpu=0.7 vmaxpu=1.3 
new load.load3 phases=3 bus1=60.1.2.3.0 kv=0.433 kw=1.0 kvar=1.0 model=1 conn=wye vminpu=0.7 vmaxpu=1.3 
new load.load31 phases=3 bus1=48.1.2.3.0 kv=0.433 kw=1.0 kvar=1.0 model=1 conn=wye vminpu=0.7 vmaxpu=1.3 
new load.load44 phases=3 bus1=63.1.2.3.0 kv=0.433 kw=1.0 kvar=1.0 model=1 conn=wye vminpu=0.7 vmaxpu=1.3 
new load.load13 phases=3 bus1=46.1.2.3.0 kv=0.433 kw=1.0 kvar=1.0 model=1 conn=wye vminpu=0.7 vmaxpu=1.3 
new load.load69 phases=3 bus1=63.1.2.3.0 kv=0.433 kw=1.0 kvar=1.0 model=1 conn=wye vminpu=0.7 vmaxpu=1.3 
new load.load12 phases=3 bus1=46.1.2.3.0 kv=0.433 kw=1.0 kvar=1.0 model=1 conn=wye vminpu=0.7 vmaxpu=1.3 
new load.load29 phases=3 bus1=48.1.2.3.0 kv=0.433 kw=1.0 kvar=1.0 model=1 conn=wye vminpu=0.7 vmaxpu=1.3 
new load.load75 phases=3 bus1=64.1.2.3.0 kv=0.433 kw=1.0 kvar=1.0 model=1 conn=wye vminpu=0.7 vmaxpu=1.3 
new load.load43 phases=3 bus1=63.1.2.3.0 kv=0.433 kw=1.0 kvar=1.0 model=1 conn=wye vminpu=0.7 vmaxpu=1.3 
new load.load7 phases=3 bus1=60.1.2.3.0 kv=0.433 kw=1.0 kvar=1.0 model=1 conn=wye vminpu=0.7 vmaxpu=1.3 
new load.load15 phases=3 bus1=089.1.2.3.0 kv=0.433 kw=1.0 kvar=1.0 model=1 conn=wye vminpu=0.7 vmaxpu=1.3 
new load.load27 phases=3 bus1=48.1.2.3.0 kv=0.433 kw=1.0 kvar=1.0 model=1 conn=wye vminpu=0.7 vmaxpu=1.3 
new load.load79 phases=3 bus1=64.1.2.3.0 kv=0.433 kw=1.0 kvar=1.0 model=1 conn=wye vminpu=0.7 vmaxpu=1.3 
new load.load58 phases=3 bus1=63.1.2.3.0 kv=0.433 kw=1.0 kvar=1.0 model=1 conn=wye vminpu=0.7 vmaxpu=1.3 
new load.load86 phases=3 bus1=64.1.2.3.0 kv=0.433 kw=1.0 kvar=1.0 model=1 conn=wye vminpu=0.7 vmaxpu=1.3 
new load.load19 phases=3 bus1=089.1.2.3.0 kv=0.433 kw=1.0 kvar=1.0 model=1 conn=wye vminpu=0.7 vmaxpu=1.3 
new load.load51 phases=3 bus1=63.1.2.3.0 kv=0.433 kw=1.0 kvar=1.0 model=1 conn=wye vminpu=0.7 vmaxpu=1.3 
new load.load25 phases=3 bus1=48.1.2.3.0 kv=0.433 kw=1.0 kvar=1.0 model=1 conn=wye vminpu=0.7 vmaxpu=1.3 
new load.load63 phases=3 bus1=63.1.2.3.0 kv=0.433 kw=1.0 kvar=1.0 model=1 conn=wye vminpu=0.7 vmaxpu=1.3 
new load.load32 phases=3 bus1=48.1.2.3.0 kv=0.433 kw=1.0 kvar=1.0 model=1 conn=wye vminpu=0.7 vmaxpu=1.3 
new load.load72 phases=3 bus1=64.1.2.3.0 kv=0.433 kw=1.0 kvar=1.0 model=1 conn=wye vminpu=0.7 vmaxpu=1.3 
new load.load24 phases=3 bus1=48.1.2.3.0 kv=0.433 kw=1.0 kvar=1.0 model=1 conn=wye vminpu=0.7 vmaxpu=1.3 
new load.load73 phases=3 bus1=64.1.2.3.0 kv=0.433 kw=1.0 kvar=1.0 model=1 conn=wye vminpu=0.7 vmaxpu=1.3 
new load.load53 phases=3 bus1=63.1.2.3.0 kv=0.433 kw=1.0 kvar=1.0 model=1 conn=wye vminpu=0.7 vmaxpu=1.3 
new load.load48 phases=3 bus1=63.1.2.3.0 kv=0.433 kw=1.0 kvar=1.0 model=1 conn=wye vminpu=0.7 vmaxpu=1.3 
new load.load57 phases=3 bus1=63.1.2.3.0 kv=0.433 kw=1.0 kvar=1.0 model=1 conn=wye vminpu=0.7 vmaxpu=1.3 
new load.load52 phases=3 bus1=63.1.2.3.0 kv=0.433 kw=1.0 kvar=1.0 model=1 conn=wye vminpu=0.7 vmaxpu=1.3 
new load.load21 phases=3 bus1=089.1.2.3.0 kv=0.433 kw=1.0 kvar=1.0 model=1 conn=wye vminpu=0.7 vmaxpu=1.3 
new load.load10 phases=3 bus1=60.1.2.3.0 kv=0.433 kw=1.0 kvar=1.0 model=1 conn=wye vminpu=0.7 vmaxpu=1.3 
new load.load49 phases=3 bus1=63.1.2.3.0 kv=0.433 kw=1.0 kvar=1.0 model=1 conn=wye vminpu=0.7 vmaxpu=1.3 
new load.load36 phases=3 bus1=48.1.2.3.0 kv=0.433 kw=1.0 kvar=1.0 model=1 conn=wye vminpu=0.7 vmaxpu=1.3 
new load.load54 phases=3 bus1=63.1.2.3.0 kv=0.433 kw=1.0 kvar=1.0 model=1 conn=wye vminpu=0.7 vmaxpu=1.3 
new load.load5 phases=3 bus1=60.1.2.3.0 kv=0.433 kw=1.0 kvar=1.0 model=1 conn=wye vminpu=0.7 vmaxpu=1.3 
new load.load14 phases=3 bus1=46.1.2.3.0 kv=0.433 kw=1.0 kvar=1.0 model=1 conn=wye vminpu=0.7 vmaxpu=1.3 
new load.load80 phases=3 bus1=64.1.2.3.0 kv=0.433 kw=1.0 kvar=1.0 model=1 conn=wye vminpu=0.7 vmaxpu=1.3 
new load.load40 phases=3 bus1=48.1.2.3.0 kv=0.433 kw=1.0 kvar=1.0 model=1 conn=wye vminpu=0.7 vmaxpu=1.3 
new load.load17 phases=3 bus1=089.1.2.3.0 kv=0.433 kw=1.0 kvar=1.0 model=1 conn=wye vminpu=0.7 vmaxpu=1.3 
new load.load67 phases=3 bus1=63.1.2.3.0 kv=0.433 kw=1.0 kvar=1.0 model=1 conn=wye vminpu=0.7 vmaxpu=1.3 
new load.load78 phases=3 bus1=64.1.2.3.0 kv=0.433 kw=1.0 kvar=1.0 model=1 conn=wye vminpu=0.7 vmaxpu=1.3 
new load.load41 phases=3 bus1=48.1.2.3.0 kv=0.433 kw=1.0 kvar=1.0 model=1 conn=wye vminpu=0.7 vmaxpu=1.3 
new load.load56 phases=3 bus1=63.1.2.3.0 kv=0.433 kw=1.0 kvar=1.0 model=1 conn=wye vminpu=0.7 vmaxpu=1.3 
new load.load38 phases=3 bus1=48.1.2.3.0 kv=0.433 kw=1.0 kvar=1.0 model=1 conn=wye vminpu=0.7 vmaxpu=1.3 
new load.load50 phases=3 bus1=63.1.2.3.0 kv=0.433 kw=1.0 kvar=1.0 model=1 conn=wye vminpu=0.7 vmaxpu=1.3 
new load.load45 phases=3 bus1=63.1.2.3.0 kv=0.433 kw=1.0 kvar=1.0 model=1 conn=wye vminpu=0.7 vmaxpu=1.3 
new load.load26 phases=3 bus1=48.1.2.3.0 kv=0.433 kw=1.0 kvar=1.0 model=1 conn=wye vminpu=0.7 vmaxpu=1.3 
new load.load68 phases=3 bus1=63.1.2.3.0 kv=0.433 kw=1.0 kvar=1.0 model=1 conn=wye vminpu=0.7 vmaxpu=1.3 
new load.load55 phases=3 bus1=63.1.2.3.0 kv=0.433 kw=1.0 kvar=1.0 model=1 conn=wye vminpu=0.7 vmaxpu=1.3 
new load.load64 phases=3 bus1=63.1.2.3.0 kv=0.433 kw=1.0 kvar=1.0 model=1 conn=wye vminpu=0.7 vmaxpu=1.3 
new load.load22 phases=3 bus1=089.1.2.3.0 kv=0.433 kw=1.0 kvar=1.0 model=1 conn=wye vminpu=0.7 vmaxpu=1.3 
new load.load74 phases=3 bus1=64.1.2.3.0 kv=0.433 kw=1.0 kvar=1.0 model=1 conn=wye vminpu=0.7 vmaxpu=1.3 
new load.load39 phases=3 bus1=48.1.2.3.0 kv=0.433 kw=1.0 kvar=1.0 model=1 conn=wye vminpu=0.7 vmaxpu=1.3 
new load.load37 phases=3 bus1=48.1.2.3.0 kv=0.433 kw=1.0 kvar=1.0 model=1 conn=wye vminpu=0.7 vmaxpu=1.3 
new load.load18 phases=3 bus1=089.1.2.3.0 kv=0.433 kw=1.0 kvar=1.0 model=1 conn=wye vminpu=0.7 vmaxpu=1.3 
new load.load87 phases=3 bus1=64.1.2.3.0 kv=0.433 kw=1.0 kvar=1.0 model=1 conn=wye vminpu=0.7 vmaxpu=1.3 
new load.load4 phases=3 bus1=60.1.2.3.0 kv=0.433 kw=1.0 kvar=1.0 model=1 conn=wye vminpu=0.7 vmaxpu=1.3 
new load.load82 phases=3 bus1=64.1.2.3.0 kv=0.433 kw=1.0 kvar=1.0 model=1 conn=wye vminpu=0.7 vmaxpu=1.3 
new load.load23 phases=3 bus1=48.1.2.3.0 kv=0.433 kw=1.0 kvar=1.0 model=1 conn=wye vminpu=0.7 vmaxpu=1.3 
new load.load9 phases=3 bus1=60.1.2.3.0 kv=0.433 kw=1.0 kvar=1.0 model=1 conn=wye vminpu=0.7 vmaxpu=1.3 
new load.load16 phases=3 bus1=089.1.2.3.0 kv=0.433 kw=1.0 kvar=1.0 model=1 conn=wye vminpu=0.7 vmaxpu=1.3 
new load.load62 phases=3 bus1=63.1.2.3.0 kv=0.433 kw=1.0 kvar=1.0 model=1 conn=wye vminpu=0.7 vmaxpu=1.3 
new load.load77 phases=3 bus1=64.1.2.3.0 kv=0.433 kw=1.0 kvar=1.0 model=1 conn=wye vminpu=0.7 vmaxpu=1.3 
new load.load84 phases=3 bus1=64.1.2.3.0 kv=0.433 kw=1.0 kvar=1.0 model=1 conn=wye vminpu=0.7 vmaxpu=1.3 
new load.load65 phases=3 bus1=63.1.2.3.0 kv=0.433 kw=1.0 kvar=1.0 model=1 conn=wye vminpu=0.7 vmaxpu=1.3 

